water1
 OpenBabel07251916203D

  3  2  0  0  0  0  0  0  0  0999 V2000
    0.0625    0.0000   -1.4226 O   0  0  0  0  0  0  0  0  0  0  0  0
   -0.4070   -0.7602   -1.7717 H   0  0  0  0  0  0  0  0  0  0  0  0
   -0.4070    0.7602   -1.7717 H   0  0  0  0  0  0  0  0  0  0  0  0
  2  1  1  0  0  0  0
  3  1  1  0  0  0  0
M  END
