phenol1
 OpenBabel07261912283D

 13 13  0  0  0  0  0  0  0  0999 V2000
   -1.3885    1.9299   -0.4431 O   0  0  0  0  0  0  0  0  0  0  0  0
   -0.5238    1.9647   -0.0065 H   0  0  0  0  0  0  0  0  0  0  0  0
   -2.0071    0.7638   -0.1084 C   0  0  0  0  0  0  0  0  0  0  0  0
   -1.4631   -0.1519    0.7950 C   0  0  0  0  0  0  0  0  0  0  0  0
   -2.1476   -1.3295    1.0884 C   0  0  0  0  0  0  0  0  0  0  0  0
   -3.3743   -1.6031    0.4896 C   0  0  0  0  0  0  0  0  0  0  0  0
   -3.9144   -0.6839   -0.4091 C   0  0  0  0  0  0  0  0  0  0  0  0
   -3.2370    0.4930   -0.7096 C   0  0  0  0  0  0  0  0  0  0  0  0
   -0.5107    0.0567    1.2643 H   0  0  0  0  0  0  0  0  0  0  0  0
   -1.7151   -2.0321    1.7878 H   0  0  0  0  0  0  0  0  0  0  0  0
   -3.9025   -2.5174    0.7198 H   0  0  0  0  0  0  0  0  0  0  0  0
   -4.8671   -0.8823   -0.8811 H   0  0  0  0  0  0  0  0  0  0  0  0
   -3.6432    1.2134   -1.4058 H   0  0  0  0  0  0  0  0  0  0  0  0
  1  3  1  0  0  0  0
  1  2  1  0  0  0  0
  3  4  2  0  0  0  0
  4  5  1  0  0  0  0
  4  9  1  0  0  0  0
  5 10  1  0  0  0  0
  6 11  1  0  0  0  0
  6  5  2  0  0  0  0
  7  6  1  0  0  0  0
  8  7  2  0  0  0  0
  8  3  1  0  0  0  0
 12  7  1  0  0  0  0
 13  8  1  0  0  0  0
M  END
