water2
 OpenBabel07251916203D

  3  2  0  0  0  0  0  0  0  0999 V2000
   -0.0670    0.0000    1.4944 O   0  0  0  0  0  0  0  0  0  0  0  0
    0.8157    0.0000    1.8659 H   0  0  0  0  0  0  0  0  0  0  0  0
    0.0689    0.0000    0.5391 H   0  0  0  0  0  0  0  0  0  0  0  0
  1  2  1  0  0  0  0
  3  1  1  0  0  0  0
M  END
