26
C12H12O2
O                    -1.388500000000     1.929900000000    -0.443100000000
H                    -0.523800000000     1.964700000000    -0.006500000000
C                    -2.007100000000     0.763800000000    -0.108400000000
C                    -1.463100000000    -0.151900000000     0.795000000000
C                    -2.147600000000    -1.329500000000     1.088400000000
C                    -3.374300000000    -1.603100000000     0.489600000000
C                    -3.914400000000    -0.683900000000    -0.409100000000
C                    -3.237000000000     0.493000000000    -0.709600000000
H                    -0.510700000000     0.056700000000     1.264300000000
H                    -1.715100000000    -2.032100000000     1.787800000000
H                    -3.902500000000    -2.517400000000     0.719800000000
H                    -4.867100000000    -0.882300000000    -0.881100000000
H                    -3.643200000000     1.213400000000    -1.405800000000
O                     1.353100000000     1.938300000000     0.472300000000
H                     1.784300000000     2.348700000000     1.229700000000
C                     2.037000000000     0.786500000000     0.149500000000
C                     1.590400000000     0.069700000000    -0.957400000000
C                     2.241700000000    -1.107000000000    -1.312800000000
C                     3.331600000000    -1.566600000000    -0.574900000000
C                     3.769700000000    -0.839700000000     0.528600000000
C                     3.122500000000     0.338300000000     0.896000000000
H                     0.744600000000     0.436800000000    -1.521900000000
H                     1.892100000000    -1.665000000000    -2.170200000000
H                     3.833000000000    -2.481200000000    -0.856700000000
H                     4.613800000000    -1.185000000000     1.109300000000
H                     3.459900000000     0.903000000000     1.756900000000
