
     RDKit          3D

 63 66  0  0  0  0  0  0  0  0999 V2000
    3.6851    1.9019    3.7695 C   0  0  0  0  0  0  0  0  0  0  0  0
    2.4584    2.2222    2.9152 C   0  0  0  0  0  0  0  0  0  0  0  0
    2.8247    2.9926    1.6385 C   0  0  0  0  0  0  0  0  0  0  0  0
    3.6352    2.1581    0.6911 C   0  0  0  0  0  0  0  0  0  0  0  0
    4.9455    2.3715    0.4122 N   0  0  0  0  0  0  0  0  0  0  0  0
    5.3394    1.4455   -0.4594 N   0  0  0  0  0  0  0  0  0  0  0  0
    6.6903    1.3623   -1.0012 C   0  0  0  0  0  0  0  0  0  0  0  0
    4.2911    0.6463   -0.7426 C   0  0  0  0  0  0  0  0  0  0  0  0
    3.2120    1.0674   -0.0400 C   0  0  0  0  0  0  0  0  0  0  0  0
    1.9968    0.4749   -0.1383 N   0  0  0  0  0  0  0  0  0  0  0  0
    1.8683   -0.6073   -0.9741 C   0  0  0  0  0  0  0  0  0  0  0  0
    2.9548   -1.0504   -1.6906 N   0  0  0  0  0  0  0  0  0  0  0  0
    4.1741   -0.4441   -1.5982 C   0  0  0  0  0  0  0  0  0  0  0  0
    5.1502   -0.8690   -2.2697 O   0  0  0  0  0  0  0  0  0  0  0  0
    0.5685   -1.3086   -1.1026 C   0  0  0  0  0  0  0  0  0  0  0  0
    0.1244   -1.7950   -2.3523 C   0  0  0  0  0  0  0  0  0  0  0  0
    0.9272   -1.5846   -3.4887 O   0  0  0  0  0  0  0  0  0  0  0  0
    0.5704   -1.8951   -4.8361 C   0  0  0  0  0  0  0  0  0  0  0  0
   -0.4219   -0.8735   -5.3812 C   0  0  0  0  0  0  0  0  0  0  0  0
   -1.1124   -2.4662   -2.4278 C   0  0  0  0  0  0  0  0  0  0  0  0
   -1.8980   -2.6375   -1.2878 C   0  0  0  0  0  0  0  0  0  0  0  0
   -1.4645   -2.1506   -0.0517 C   0  0  0  0  0  0  0  0  0  0  0  0
   -0.2325   -1.4942    0.0378 C   0  0  0  0  0  0  0  0  0  0  0  0
   -2.4716   -2.3546    1.3841 S   0  0  0  0  0  0  0  0  0  0  0  0
   -3.2183   -3.6562    1.2813 O   0  0  0  0  0  0  0  0  0  0  0  0
   -1.5949   -2.4154    2.6053 O   0  0  0  0  0  0  0  0  0  0  0  0
   -3.6155   -1.0454    1.5543 N   0  0  0  0  0  0  0  0  0  0  0  0
   -4.4116   -0.8961    0.3304 C   0  0  0  0  0  0  0  0  0  0  0  0
   -5.5619    0.1003    0.5740 C   0  0  0  0  0  0  0  0  0  0  0  0
   -5.2416    1.1296    1.5931 N   0  0  0  0  0  0  0  0  0  0  0  0
   -5.7631    0.7781    2.9255 C   0  0  0  0  0  0  0  0  0  0  0  0
   -3.8016    1.4545    1.6318 C   0  0  0  0  0  0  0  0  0  0  0  0
   -2.9169    0.2116    1.8850 C   0  0  0  0  0  0  0  0  0  0  0  0
    4.3759    1.2256    3.2228 H   0  0  0  0  0  0  0  0  0  0  0  0
    4.2227    2.8353    4.0397 H   0  0  0  0  0  0  0  0  0  0  0  0
    3.3637    1.3949    4.7034 H   0  0  0  0  0  0  0  0  0  0  0  0
    1.9305    1.2785    2.6609 H   0  0  0  0  0  0  0  0  0  0  0  0
    1.7614    2.8447    3.5173 H   0  0  0  0  0  0  0  0  0  0  0  0
    3.3943    3.9081    1.9089 H   0  0  0  0  0  0  0  0  0  0  0  0
    1.8945    3.3168    1.1247 H   0  0  0  0  0  0  0  0  0  0  0  0
    7.1371    0.3785   -0.7463 H   0  0  0  0  0  0  0  0  0  0  0  0
    6.6606    1.4831   -2.1043 H   0  0  0  0  0  0  0  0  0  0  0  0
    7.3256    2.1651   -0.5706 H   0  0  0  0  0  0  0  0  0  0  0  0
    1.1805    0.8568    0.3892 H   0  0  0  0  0  0  0  0  0  0  0  0
    0.1677   -2.9269   -4.9139 H   0  0  0  0  0  0  0  0  0  0  0  0
    1.4901   -1.8527   -5.4567 H   0  0  0  0  0  0  0  0  0  0  0  0
   -0.6496   -1.1040   -6.4431 H   0  0  0  0  0  0  0  0  0  0  0  0
    0.0157    0.1455   -5.3206 H   0  0  0  0  0  0  0  0  0  0  0  0
   -1.3678   -0.8938   -4.8017 H   0  0  0  0  0  0  0  0  0  0  0  0
   -1.4843   -2.8565   -3.3636 H   0  0  0  0  0  0  0  0  0  0  0  0
   -2.8498   -3.1464   -1.3714 H   0  0  0  0  0  0  0  0  0  0  0  0
    0.1079   -1.1398    1.0025 H   0  0  0  0  0  0  0  0  0  0  0  0
   -4.8455   -1.8748    0.0284 H   0  0  0  0  0  0  0  0  0  0  0  0
   -3.7736   -0.5291   -0.5060 H   0  0  0  0  0  0  0  0  0  0  0  0
   -6.4811   -0.4630    0.8525 H   0  0  0  0  0  0  0  0  0  0  0  0
   -5.7952    0.6127   -0.3840 H   0  0  0  0  0  0  0  0  0  0  0  0
   -6.8718    0.7194    2.8915 H   0  0  0  0  0  0  0  0  0  0  0  0
   -5.3649   -0.1961    3.2788 H   0  0  0  0  0  0  0  0  0  0  0  0
   -5.5009    1.5651    3.6638 H   0  0  0  0  0  0  0  0  0  0  0  0
   -3.5174    1.9056    0.6551 H   0  0  0  0  0  0  0  0  0  0  0  0
   -3.5972    2.2315    2.4016 H   0  0  0  0  0  0  0  0  0  0  0  0
   -2.6370    0.1864    2.9602 H   0  0  0  0  0  0  0  0  0  0  0  0
   -1.9818    0.3229    1.2940 H   0  0  0  0  0  0  0  0  0  0  0  0
  1  2  1  0
  2  3  1  0
  3  4  1  0
  4  5  2  0
  5  6  1  0
  6  7  1  0
  6  8  1  0
  8  9  2  0
  9 10  1  0
 10 11  1  0
 11 12  2  0
 12 13  1  0
 13 14  2  0
 11 15  1  0
 15 16  2  0
 16 17  1  0
 17 18  1  0
 18 19  1  0
 16 20  1  0
 20 21  2  0
 21 22  1  0
 22 23  2  0
 22 24  1  0
 24 25  2  0
 24 26  2  0
 24 27  1  0
 27 28  1  0
 28 29  1  0
 29 30  1  0
 30 31  1  0
 30 32  1  0
 32 33  1  0
  9  4  1  0
 23 15  1  0
 33 27  1  0
 13  8  1  0
  1 34  1  0
  1 35  1  0
  1 36  1  0
  2 37  1  0
  2 38  1  0
  3 39  1  0
  3 40  1  0
  7 41  1  0
  7 42  1  0
  7 43  1  0
 10 44  1  0
 18 45  1  0
 18 46  1  0
 19 47  1  0
 19 48  1  0
 19 49  1  0
 20 50  1  0
 21 51  1  0
 23 52  1  0
 28 53  1  0
 28 54  1  0
 29 55  1  0
 29 56  1  0
 31 57  1  0
 31 58  1  0
 31 59  1  0
 32 60  1  0
 32 61  1  0
 33 62  1  0
 33 63  1  0
M  END
